 36
Generated by YASC buildCstruct v1.1
C      2.034000    0.000000    0.000000
C      0.353200    0.000000    2.003099
C     -1.017000    0.000000    1.761496
C     -1.911335    0.000000   -0.695669
C     -1.017000    0.000000   -1.761496
C      1.558135    0.000000   -1.307430
C      1.911335   -1.229756    0.695669
C      1.017000   -1.229756    1.761496
C     -1.558135   -1.229756    1.307430
C     -2.034000   -1.229756    0.000000
C     -0.353200   -1.229756   -2.003099
C      1.017000   -1.229756   -1.761496
C      2.034000   -2.459512    0.000000
C      0.353200   -2.459512    2.003099
C     -1.017000   -2.459512    1.761496
C     -1.911335   -2.459512   -0.695669
C     -1.017000   -2.459512   -1.761496
C      1.558135   -2.459512   -1.307430
C      1.911335   -3.689268    0.695669
C      1.017000   -3.689268    1.761496
C     -1.558135   -3.689268    1.307430
C     -2.034000   -3.689268    0.000000
C     -0.353200   -3.689268   -2.003099
C      1.017000   -3.689268   -1.761496
C      2.034000   -4.919024    0.000000
C      0.353200   -4.919024    2.003099
C     -1.017000   -4.919024    1.761496
C     -1.911335   -4.919024   -0.695669
C     -1.017000   -4.919024   -1.761496
C      1.558135   -4.919024   -1.307430
C      1.911335   -6.148780    0.695669
C      1.017000   -6.148780    1.761496
C     -1.558135   -6.148780    1.307430
C     -2.034000   -6.148780    0.000000
C     -0.353200   -6.148780   -2.003099
C      1.017000   -6.148780   -1.761496
