30

O         -1.96168        1.65561       -1.16775
O          1.98570        0.44318        0.34716
O          0.02325       -2.11258       -0.41746
O         -4.42458        2.46683        0.53854
O         -3.15413       -1.35973        0.75103
O          0.26162        3.46860        0.68944
O         -0.90195        0.68573        1.51848
O         -1.18483       -1.78064        3.25164
O         -1.21444       -0.42623       -3.38417
O          0.98773        1.79177       -2.47701
H         -1.67302        0.76404       -1.00821
H         -1.71645        2.18881       -0.41959
H          2.66360        0.23706       -0.28586
H          1.24243        0.82471       -0.10645
H          0.62993       -1.77586        0.23176
H          0.08178       -1.58565       -1.20643
H         -3.93779        3.24210        0.79339
H         -4.43125        2.39772       -0.40916
H         -2.43787       -1.65729        0.20102
H         -3.58732       -0.62521        0.33171
H          0.71649        2.94731        1.34182
H          0.88436        3.77059        0.03931
H         -0.22918        0.34409        2.09674
H         -1.72967        0.70072        1.98565
H         -0.79634       -2.34054        2.58939
H         -2.12473       -1.74780        3.11325
H         -0.35308       -0.19181       -3.71017
H         -1.82641        0.27263       -3.58410
H          1.56055        2.19252       -3.12083
H          0.18233        2.29325       -2.41897
